data_conv_structure
_symmetry_space_group_name_H-M 'P-1'
_symmetry_Int_Tables_number 2
_cell_length_a    6.232925
_cell_length_b    6.922883
_cell_length_c    8.180565
_cell_angle_alpha 91.877849
_cell_angle_beta  91.496049
_cell_angle_gamma 105.216072

loop_
_symmetry_equiv_pos_as_xyz
  'x,y,z'
  '-x,-y,-z'

loop_
_atom_site_label
_atom_site_type_symbol
_atom_site_Wyckoff_symbol
_atom_site_fract_x
_atom_site_fract_y
_atom_site_fract_z
H1    H   i   0.359080  0.193891  0.815847
H2    H   i   0.645262  0.791378  0.680944
H3    H   i   0.165990  0.276966  0.558007
H4    H   i   0.825839  0.716397  0.946126
H5    H   i   0.127624  0.059356  0.699433
H6    H   i   0.866506  0.940597  0.798763
H7    H   i   0.390507  0.412723  0.461139
H8    H   i   0.578726  0.599236  0.030999
H9    H   i   0.055279  0.839095  0.410557
H10   H   i   0.950242  0.170947  0.094460
H11   H   i   0.383926  0.636138  0.650608
H12   H   i   0.586256  0.373729  0.845697
H13   H   i   0.415347  0.936273  0.763907
H14   H   i   0.685133  0.115822  0.727594
H15   H   i   0.090235  0.497957  0.181717
H16   H   i   0.709485  0.281011  0.569606
H17   H   i   0.192721  0.777930  0.673936
H18   H   i   0.788355  0.272506  0.883090
H19   H   i   0.292504  0.727328  0.897091
H20   H   i   0.985376  0.398218  0.560533
C1    C   i   0.182897  0.128108  0.816350
C2    C   i   0.818440  0.866352  0.681993
C3    C   i   0.340248  0.344545  0.571705
C4    C   i   0.649693  0.665829  0.923927
C5    C   i   0.163188  0.982815  0.435108
C6    C   i   0.847823  0.024503  0.065907
C7    C   i   0.386684  0.495707  0.704583
C8    C   i   0.604604  0.515364  0.788326
C9    C   i   0.316999  0.010629  0.554991
C10   C   i   0.697931  0.004972  0.945051
C11   C   i   0.212488  0.464301  0.825514
C12   C   i   0.820588  0.530047  0.710975
N1    N   i   0.346898  0.873282  0.656307
N2    N   i   0.666232  0.147744  0.848087
N3    N   i   0.178868  0.598645  0.920228
N4    N   i   0.829506  0.409832  0.574690
O1    O   i   0.449093  0.193387  0.590717
O2    O   i   0.558374  0.826694  0.905781
O3    O   i   0.071263  0.282826  0.832520
O4    O   i   0.942373  0.724664  0.669953
