data_conv_structure
_symmetry_space_group_name_H-M 'P-1'
_symmetry_Int_Tables_number 2
_cell_length_a    6.210951
_cell_length_b    6.895928
_cell_length_c    8.154616
_cell_angle_alpha 91.752518
_cell_angle_beta  91.474327
_cell_angle_gamma 105.573322

loop_
_symmetry_equiv_pos_as_xyz
  'x,y,z'
  '-x,-y,-z'

loop_
_atom_site_label
_atom_site_type_symbol
_atom_site_Wyckoff_symbol
_atom_site_fract_x
_atom_site_fract_y
_atom_site_fract_z
H1    H   i   0.351394  0.711496  0.819185
H2    H   i   0.638086  0.305413  0.684902
H3    H   i   0.176413  0.781827  0.554618
H4    H   i   0.843486  0.216911  0.939001
H5    H   i   0.131162  0.561761  0.699623
H6    H   i   0.871675  0.438405  0.800973
H7    H   i   0.422739  0.900558  0.468482
H8    H   i   0.620091  0.079550  0.041654
H9    H   i   0.049001  0.327772  0.407571
H10   H   i   0.937474  0.667229  0.089981
H11   H   i   0.420713  0.127934  0.656776
H12   H   i   0.612051  0.854434  0.846656
H13   H   i   0.308162  0.384958  0.774601
H14   H   i   0.576399  0.556187  0.740844
H15   H   i   0.129438  0.028595  0.016016
H16   H   i   0.903442  0.002921  0.329059
H17   H   i   0.213674  0.225102  0.617750
H18   H   i   0.806063  0.714524  0.823923
H19   H   i   0.292830  0.213446  0.926634
H20   H   i   0.711395  0.770526  0.604010
C1    C   i   0.177426  0.635753  0.817027
C2    C   i   0.815067  0.371734  0.683350
C3    C   i   0.353231  0.833993  0.576422
C4    C   i   0.666909  0.150361  0.930343
C5    C   i   0.154126  0.474511  0.434464
C6    C   i   0.843206  0.515325  0.064705
C7    C   i   0.399088  0.984157  0.712423
C8    C   i   0.616684  0.999902  0.796598
C9    C   i   0.303234  0.494289  0.556277
C10   C   i   0.683215  0.484015  0.948512
C11   C   i   0.177539  0.970446  0.783723
C12   C   i   0.790343  0.035343  0.674221
N1    N   i   0.333804  0.351851  0.655103
N2    N   i   0.650844  0.621181  0.846604
N3    N   i   0.149827  0.101559  0.910017
N4    N   i   0.821613  0.901303  0.577713
O1    O   i   0.444347  0.673213  0.595571
O2    O   i   0.552638  0.297796  0.914028
O3    O   i   0.054755  0.778894  0.828524
O4    O   i   0.927144  0.218776  0.662881
